[TITLE]

[JUNCTIONS]
;ID                      Elevation       Demand Pattern                 
 8                                 51  0.016092502086 base                       ;
 10                                41           0.006 base                       ;
 11                                41           0.006 base                       ;
 12                                41           0.006 base                       ;
 522                               34  0.016092502086 base                       ;
 527                               52 0.0096555012516 base                       ;
 528                               60  0.028966503755 base                       ;
 18                                49  0.043986172369 base                       ;
 20                                48  0.048277506258 base                       ;
 26                                53           0.006 base                       ;
 27                                49  0.016092502086 base                       ;
 28                                53  0.016092502086 base                       ;
 29                                47  0.048277506258 base                       ;
 30                                46  0.016092502086 base                       ;
 31                                47  0.064370008344 base                       ;
 539                               53           0.006 base                       ;
 540                               50           0.006 base                       ;
 543                               49           0.006 base                       ;
 545                               49  0.019311002503 base                       ;
 36                                50  0.048277506258 base                       ;
 547                               50  0.028966503755 base                       ;
 38                                47  0.032185004172 base                       ;
 556                               47  0.016092502086 base                       ;
 46                                47           0.006 base                       ;
 566                               49 0.0096555012516 base                       ;
 55                                49  0.064370008344 base                       ;
 56                                47  0.032185004172 base                       ;
 57                                47  0.064370008344 base                       ;
 58                                47  0.032185004172 base                       ;
 59                                49  0.016092502086 base                       ;
 60                                51  0.016092502086 base                       ;
 61                                48  0.048277506258 base                       ;
 69                                47  0.016092502086 base                       ;
 70                                45  0.032185004172 base                       ;
 71                                47  0.016092502086 base                       ;
 72                                48  0.032185004172 base                       ;
 73                                49   0.02252950292 base                       ;
 74                                48  0.054714507093 base                       ;
 75                                48  0.032185004172 base                       ;
 76                                49  0.016092502086 base                       ;
 601                               48   0.02252950292 base                       ;
 99                                49  0.032185004172 base                       ;
 613                               49  0.048277506258 base                       ;
 614                               49  0.019311002503 base                       ;
 620                               49  0.032185004172 base                       ;
 622                               49  0.041840505424 base                       ;
 624                               47  0.032185004172 base                       ;
 625                               49   0.08046251043 base                       ;
 627                               47   0.08046251043 base                       ;
 628                               47  0.019311002503 base                       ;
 125                               42  0.048277506258 base                       ;
 126                               46  0.016092502086 base                       ;
 127                               46  0.021456669448 base                       ;
 128                               49  0.016092502086 base                       ;
 129                               47  0.032185004172 base                       ;
 130                               46  0.032185004172 base                       ;
 131                               47  0.016092502086 base                       ;
 132                               45  0.032185004172 base                       ;
 133                               47   0.02252950292 base                       ;
 637                               43  0.032185004172 base                       ;
 645                               51  0.041840505424 base                       ;
 145                               47  0.021456669448 base                       ;
 146                               47  0.032185004172 base                       ;
 147                               47  0.096555012516 base                       ;
 661                               51  0.032185004172 base                       ;
 152                               47  0.019311002503 base                       ;
 153                               42  0.016092502086 base                       ;
 154                               46  0.048277506258 base                       ;
 155                               47  0.016092502086 base                       ;
 664                               52  0.032185004172 base                       ;
 157                               50  0.032185004172 base                       ;
 667                               48  0.016092502086 base                       ;
 677                               48  0.048277506258 base                       ;
 681                               49  0.048277506258 base                       ;
 683                               50  0.048277506258 base                       ;
 684                               51  0.016092502086 base                       ;
 173                               49  0.021456669448 base                       ;
 174                               47  0.048277506258 base                       ;
 175                               49  0.016092502086 base                       ;
 176                               47  0.016092502086 base                       ;
 177                               48  0.016092502086 base                       ;
 178                               46  0.032185004172 base                       ;
 692                               49  0.032185004172 base                       ;
 693                               48  0.012874001669 base                       ;
 185                               51  0.016092502086 base                       ;
 186                               51  0.032185004172 base                       ;
 709                               48  0.045059005841 base                       ;
 711                               50  0.016092502086 base                       ;
 203                               49           0.006 base                       ;
 204                               42  0.048277506258 base                       ;
 205                               47  0.016092502086 base                       ;
 210                               48  0.032185004172 base                       ;
 728                               49           0.006 base                       ;
 219                               48           0.006 base                       ;
 735                               48  0.032185004172 base                       ;
 737                               43  0.032185004172 base                       ;
 738                               49  0.016092502086 base                       ;
 739                               48  0.032185004172 base                       ;
 230                               48   0.02252950292 base                       ;
 231                               44  0.032185004172 base                       ;
 232                               48  0.032185004172 base                       ;
 233                               48  0.032185004172 base                       ;
 234                               47  0.048277506258 base                       ;
 235                               48  0.010728334724 base                       ;
 237                               50  0.032185004172 base                       ;
 238                               50  0.037549171534 base                       ;
 239                               52  0.032185004172 base                       ;
 240                               51  0.016092502086 base                       ;
 242                               49  0.048277506258 base                       ;
 755                               52  0.035403504589 base                       ;
 248                               45           0.006 base                       ;
 249                               49  0.048277506258 base                       ;
 250                               50  0.016092502086 base                       ;
 251                               49  0.016092502086 base                       ;
 764                               44  0.032185004172 base                       ;
 760                               45  0.048277506258 base                       ;
 254                               45   0.05364167362 base                       ;
 761                               49 0.0064370008344 base                       ;
 256                               43  0.032185004172 base                       ;
 257                               46  0.032185004172 base                       ;
 762                               49           0.006 base                       ;
 763                               49  0.016092502086 base                       ;
 260                               48           0.006 base                       ;
 266                               48  0.021456669448 base                       ;
 267                               45  0.069734175706 base                       ;
 268                               47  0.016092502086 base                       ;
 269                               46  0.048277506258 base                       ;
 270                               47  0.048277506258 base                       ;
 273                               44  0.016092502086 base                       ;
 279                               53  0.032185004172 base                       ;
 280                               49  0.016092502086 base                       ;
 281                               49  0.016092502086 base                       ;
 282                               49           0.006 base                       ;
 284                               50  0.032185004172 base                       ;
 293                               44  0.064370008344 base                       ;
 298                               48 0.0064370008344 base                       ;
 301                               43  0.016092502086 base                       ;
 302                               47  0.016092502086 base                       ;
 306                               50  0.048277506258 base                       ;
 307                               47  0.060078674455 base                       ;
 308                               50  0.032185004172 base                       ;
 310                               49 0.0064370008344 base                       ;
 313                               33   0.08046251043 base                       ;
 325                               47  0.032185004172 base                       ;
 326                               45   0.05364167362 base                       ;
 327                               41  0.032185004172 base                       ;
 328                               46  0.021456669448 base                       ;
 329                               48  0.021456669448 base                       ;
 330                               49  0.048277506258 base                       ;
 333                               48   0.05364167362 base                       ;
 334                               47  0.016092502086 base                       ;
 335                               45  0.064370008344 base                       ;
 352                               51  0.019311002503 base                       ;
 361                               47  0.048277506258 base                       ;
 364                               49   0.02252950292 base                       ;
 372                               49  0.016092502086 base                       ;
 375                               48  0.016092502086 base                       ;
 376                               46  0.048277506258 base                       ;
 377                               47  0.032185004172 base                       ;
 378                               51  0.032185004172 base                       ;
 380                               48  0.016092502086 base                       ;
 381                               47  0.016092502086 base                       ;
 384                               47  0.032185004172 base                       ;
 385                               48           0.006 base                       ;
 386                               44  0.032185004172 base                       ;
 401                               49  0.048277506258 base                       ;
 405                               47  0.032185004172 base                       ;
 416                               49  0.032185004172 base                       ;
 417                               48           0.006 base                       ;
 418                               48  0.035403504589 base                       ;
 419                               49           0.006 base                       ;
 422                               46  0.048277506258 base                       ;
 423                               47  0.032185004172 base                       ;
 425                               43  0.032185004172 base                       ;
 441                               47  0.021456669448 base                       ;
 449                               50  0.048277506258 base                       ;
 451                               49  0.032185004172 base                       ;
 452                               46  0.042913338896 base                       ;
 453                               48  0.032185004172 base                       ;
 466                               44  0.096555012516 base                       ;
 474                               41           0.006 base                       ;
 475                               45           0.006 base                       ;
 476                               45  0.016092502086 base                       ;
 482                               47  0.054714507093 base                       ;
 492                               40           0.006 base                       ;
 493                               42           0.006 base                       ;
 494                               46           0.006 base                       ;
 495                               48           0.006 base                       ;
 496                               45            0.06 base                       ;
 497                               47           0.006 base                       ;
 498                               40  0.016092502086 base                       ;
 499                               46           0.006 base                       ;
 501                               45           0.006 base                       ;
 0                                 44  0.016092502086 base                       ;
 1                                 44  0.016092502086 base                       ;
 2                                 44  0.011801168196 base                       ;
 516                               49   0.08046251043 base                       ;
 523                               58           0.006 base                       ;
 524                               58           0.006 base                       ;
 15                                46   0.12874001669 base                       ;
 23                                49  0.032185004172 base                       ;
 24                                49  0.064370008344 base                       ;
 25                                49  0.032185004172 base                       ;
 42                                47  0.048277506258 base                       ;
 45                                43  0.048277506258 base                       ;
 52                                39           0.006 base                       ;
 53                                39   0.05364167362 base                       ;
 54                                39  0.037549171534 base                       ;
 573                               51  0.016092502086 base                       ;
 62                                48  0.032185004172 base                       ;
 63                                48           0.006 base                       ;
 64                                52           0.006 base                       ;
 65                                49  0.016092502086 base                       ;
 66                                50  0.075098343068 base                       ;
 579                               48           0.006 base                       ;
 68                                48   0.05364167362 base                       ;
 576                               48           0.006 base                       ;
 577                               49   0.02252950292 base                       ;
 578                               48  0.025748003338 base                       ;
 83                                52  0.048277506258 base                       ;
 84                                49  0.086899511265 base                       ;
 85                                49  0.064370008344 base                       ;
 596                               46 0.0064370008344 base                       ;
 597                               46  0.016092502086 base                       ;
 90                                44  0.032185004172 base                       ;
 91                                42  0.016092502086 base                       ;
 92                                36  0.032185004172 base                       ;
 603                               45  0.032185004172 base                       ;
 604                               47           0.006 base                       ;
 96                                49  0.032185004172 base                       ;
 97                                49  0.064370008344 base                       ;
 98                                47  0.064370008344 base                       ;
 612                               45  0.032185004172 base                       ;
 101                               50  0.016092502086 base                       ;
 102                               52  0.048277506258 base                       ;
 103                               47  0.032185004172 base                       ;
 104                               45    0.1126475146 base                       ;
 105                               46  0.067588508761 base                       ;
 106                               49  0.032185004172 base                       ;
 111                               45  0.027893670283 base                       ;
 112                               47  0.035403504589 base                       ;
 113                               46   0.02252950292 base                       ;
 114                               47  0.064370008344 base                       ;
 115                               47           0.006 base                       ;
 116                               47  0.069734175706 base                       ;
 633                               48  0.024675169865 base                       ;
 634                               48  0.035403504589 base                       ;
 123                               40  0.096555012516 base                       ;
 124                               39  0.096555012516 base                       ;
 639                               53  0.037549171534 base                       ;
 640                               51  0.040767671951 base                       ;
 138                               50  0.032185004172 base                       ;
 139                               49  0.051496006675 base                       ;
 654                               48  0.042913338896 base                       ;
 658                               48  0.059005840982 base                       ;
 659                               45  0.046131839313 base                       ;
 660                               51  0.064370008344 base                       ;
 662                               50  0.051496006675 base                       ;
 666                               49  0.043986172369 base                       ;
 669                               56  0.010728334724 base                       ;
 159                               47  0.048277506258 base                       ;
 160                               47  0.016092502086 base                       ;
 161                               44  0.032185004172 base                       ;
 162                               46  0.032185004172 base                       ;
 163                               49  0.037549171534 base                       ;
 679                               47  0.019311002503 base                       ;
 171                               43  0.038622005007 base                       ;
 172                               48  0.032185004172 base                       ;
 685                               47  0.019311002503 base                       ;
 687                               45  0.015019668614 base                       ;
 688                               46 0.0064370008344 base                       ;
 179                               48  0.064370008344 base                       ;
 691                               45           0.006 base                       ;
 700                               46  0.064370008344 base                       ;
 194                               49  0.032185004172 base                       ;
 195                               48  0.032185004172 base                       ;
 196                               48  0.032185004172 base                       ;
 197                               47           0.006 base                       ;
 199                               45   0.08046251043 base                       ;
 713                               36           0.006 base                       ;
 714                               43  0.021456669448 base                       ;
 715                               36  0.016092502086 base                       ;
 211                               58  0.010728334724 base                       ;
 212                               60           0.006 base                       ;
 213                               47  0.048277506258 base                       ;
 214                               47  0.032185004172 base                       ;
 215                               47  0.021456669448 base                       ;
 216                               49  0.016092502086 base                       ;
 217                               48  0.032185004172 base                       ;
 729                               54  0.016092502086 base                       ;
 218                               45  0.016092502086 base                       ;
 734                               49  0.037549171534 base                       ;
 223                               49  0.010728334724 base                       ;
 224                               50  0.048277506258 base                       ;
 740                               45  0.016092502086 base                       ;
 285                               52           0.006 base                       ;
 289                               48  0.035403504589 base                       ;
 290                               47  0.021456669448 base                       ;
 291                               46  0.048277506258 base                       ;
 292                               47  0.048277506258 base                       ;
 295                               49  0.048277506258 base                       ;
 303                               48  0.032185004172 base                       ;
 309                               46  0.035403504589 base                       ;
 315                               55  0.021456669448 base                       ;
 316                               54  0.016092502086 base                       ;
 317                               58  0.016092502086 base                       ;
 318                               60   0.02682083681 base                       ;
 332                               37  0.064370008344 base                       ;
 342                               47  0.064370008344 base                       ;
 343                               47  0.064370008344 base                       ;
 357                               39  0.032185004172 base                       ;
 362                               51  0.048277506258 base                       ;
 363                               49  0.048277506258 base                       ;
 369                               44  0.051496006675 base                       ;
 370                               46  0.032185004172 base                       ;
 388                               48  0.016092502086 base                       ;
 389                               48  0.021456669448 base                       ;
 390                               48  0.064370008344 base                       ;
 391                               49  0.032185004172 base                       ;
 394                               48  0.016092502086 base                       ;
 409                               42  0.032185004172 base                       ;
 410                               48  0.032185004172 base                       ;
 411                               48  0.064370008344 base                       ;
 412                               48  0.032185004172 base                       ;
 414                               44  0.064370008344 base                       ;
 428                               47  0.032185004172 base                       ;
 429                               48  0.032185004172 base                       ;
 430                               49  0.032185004172 base                       ;
 431                               47  0.016092502086 base                       ;
 432                               46           0.006 base                       ;
 433                               44  0.016092502086 base                       ;
 438                               48  0.042913338896 base                       ;
 439                               48 0.0064370008344 base                       ;
 440                               48  0.016092502086 base                       ;
 442                               49  0.032185004172 base                       ;
 445                               51 0.0096555012516 base                       ;
 447                               42  0.010728334724 base                       ;
 450                               45  0.021456669448 base                       ;
 457                               48  0.032185004172 base                       ;
 468                               49  0.096555012516 base                       ;
 469                               50  0.024675169865 base                       ;
 470                               51           0.006 base                       ;
 471                               48  0.035403504589 base                       ;
 472                               41   0.08046251043 base                       ;
 478                               47    0.1126475146 base                       ;
 483                               48  0.032185004172 base                       ;
 512                               47           0.006 base                       ;
 3                                 47  0.064370008344 base                       ;
 5                                 49  0.094409345572 base                       ;
 6                                 47  0.032185004172 base                       ;
 519                               49  0.035403504589 base                       ;
 14                                48  0.064370008344 base                       ;
 16                                49  0.048277506258 base                       ;
 32                                48  0.016092502086 base                       ;
 33                                49  0.010728334724 base                       ;
 34                                49  0.016092502086 base                       ;
 35                                47  0.069734175706 base                       ;
 37                                48  0.064370008344 base                       ;
 40                                49  0.016092502086 base                       ;
 552                               49  0.038622005007 base                       ;