[TITLE]

[JUNCTIONS]
;ID                      Elevation       Demand Pattern                 
 0                                 31             0.5 base                       ;
 1                                 30             0.5 base                       ;
 2                                 43             0.5 base                       ;
 4                                 16             0.5 base                       ;
 5                                 58             0.5 base                       ;
 6                                 48             0.5 base                       ;
 7                                 56             0.5 base                       ;
 9                                  4             0.5 base                       ;
 10                                 5             0.5 base                       ;
 11                                11             0.5 base                       ;
 12                                28             0.5 base                       ;
 16                                 6             0.5 base                       ;
 17                                 7             0.5 base                       ;
 18                                37             0.5 base                       ;
 20                                13             0.5 base                       ;
 21                                 4             0.5 base                       ;
 22                                 4             0.5 base                       ;
 23                                 9             0.5 base                       ;
 24                                11             0.5 base                       ;
 25                                13             0.5 base                       ;
 26                                17             0.5 base                       ;
 27                                16             0.5 base                       ;
 28                                13             0.5 base                       ;
 29                                10             0.5 base                       ;
 30                                13             0.5 base                       ;
 31                                13             0.5 base                       ;
 32                                13             0.5 base                       ;
 37                                75             0.5 base                       ;
 38                                59             0.5 base                       ;
 39                                27             0.5 base                       ;
 40                                29             0.5 base                       ;
 41                                28             0.5 base                       ;
 42                                30             0.5 base                       ;
 43                                23             0.5 base                       ;
 44                                88             0.5 base                       ;
 45                                39             0.5 base                       ;
 46                                39             0.5 base                       ;
 57                                32             0.5 base                       ;
 58                                32             0.5 base                       ;
 59                                46             0.5 base                       ;
 60                                47             0.5 base                       ;
 63                                56             0.5 base                       ;
 69                                24             0.5 base                       ;
 70                                18             0.5 base                       ;
 75                                36             0.5 base                       ;
 76                                17             0.5 base                       ;
 77                                 5             0.5 base                       ;
 78                                 5             0.5 base                       ;
 79                                 8             0.5 base                       ;
 80                                 9             0.5 base                       ;
 81                                20             0.5 base                       ;
 82                                28             0.5 base                       ;
 83                                28             0.5 base                       ;
 84                                84             0.5 base                       ;
 85                                38             0.5 base                       ;
 86                                25             0.5 base                       ;
 95                                23             0.5 base                       ;
 96                                41             0.5 base                       ;
 97                                34             0.5 base                       ;
 98                                16             0.5 base                       ;
 99                                32             0.5 base                       ;
 100                               96             0.5 base                       ;
 101                               72             0.5 base                       ;
 102                               17             0.5 base                       ;
 103                               21             0.5 base                       ;
 104                               32             0.5 base                       ;
 105                               29             0.5 base                       ;
 108                               84             0.5 base                       ;
 109                               16             0.5 base                       ;
 110                               12             0.5 base                       ;
 111                               24             0.5 base                       ;
 112                               18             0.5 base                       ;
 121                               37             0.5 base                       ;
 122                               30             0.5 base                       ;
 123                               24             0.5 base                       ;
 124                               97             0.5 base                       ;
 125                               15             0.5 base                       ;
 126                               12             0.5 base                       ;
 127                               24             0.5 base                       ;
 128                               24             0.5 base                       ;
 131                               17             0.5 base                       ;
 132                               21             0.5 base                       ;
 133                               26             0.5 base                       ;
 134                               23             0.5 base                       ;
 135                               38             0.5 base                       ;
 137                               28             0.5 base                       ;
 138                               30             0.5 base                       ;
 139                               37             0.5 base                       ;
 140                               24             0.5 base                       ;
 143                               59             0.5 base                       ;
 144                               24             0.5 base                       ;
 149                               36             0.5 base                       ;
 150                               28             0.5 base                       ;
 151                               16             0.5 base                       ;
 152                                5             0.5 base                       ;
 155                                9             0.5 base                       ;
 157                                8             0.5 base                       ;
 158                               24             0.5 base                       ;
 159                                5             0.5 base                       ;
 161                               13             0.5 base                       ;
 162                               51             0.5 base                       ;
 163                               13             0.5 base                       ;
 164                                7             0.5 base                       ;
 165                                8             0.5 base                       ;
 166                               11             0.5 base                       ;
 167                               58             0.5 base                       ;
 168                                6             0.5 base                       ;
 169                               89             0.5 base                       ;
 129                               12             0.5 base                       ;
 130                                8             0.5 base                       ;
 3                                 35             0.5 base                       ;
 136                                8             0.5 base                       ;
 13                                19             0.5 base                       ;
 14                                16             0.5 base                       ;
 15                                21             0.5 base                       ;
 141                               13             0.5 base                       ;
 142                               16             0.5 base                       ;
 145                               26             0.5 base                       ;
 19                                 5             0.5 base                       ;
 146                                4             0.5 base                       ;
 147                               14             0.5 base                       ;
 148                               11             0.5 base                       ;
 153                                6             0.5 base                       ;
 154                               13             0.5 base                       ;
 156                               27             0.5 base                       ;
 160                               10             0.5 base                       ;
 33                                19             0.5 base                       ;
 34                                62             0.5 base                       ;
 35                                72             0.5 base                       ;
 36                                38             0.5 base                       ;
 170                              120             0.5 base                       ;
 47                                35             0.5 base                       ;
 48                                30             0.5 base                       ;
 49                                26             0.5 base                       ;
 50                                21             0.5 base                       ;
 51                                16             0.5 base                       ;
 52                                12             0.5 base                       ;
 53                                12             0.5 base                       ;
 54                                16             0.5 base                       ;
 55                                18             0.5 base                       ;
 56                                10             0.5 base                       ;
 61                                29             0.5 base                       ;
 62                                25             0.5 base                       ;
 64                                25             0.5 base                       ;
 65                                21             0.5 base                       ;
 66                                18             0.5 base                       ;
 67                                16             0.5 base                       ;
 68                                10             0.5 base                       ;
 71                                13             0.5 base                       ;
 72                                15             0.5 base                       ;
 73                                16             0.5 base                       ;
 74                                27             0.5 base                       ;
 87                                32             0.5 base                       ;
 88                                31             0.5 base                       ;
 89                                36             0.5 base                       ;
 90                                35             0.5 base                       ;
 91                                26             0.5 base                       ;
 92                                10             0.5 base                       ;
 93                                10             0.5 base                       ;
 94                                13             0.5 base                       ;
 106                               10             0.5 base                       ;
 107                                6             0.5 base                       ;
 113                               25             0.5 base                       ;
 114                               22             0.5 base                       ;
 115                               20             0.5 base                       ;
 116                               13             0.5 base                       ;
 117                               32             0.5 base                       ;
 118                               26             0.5 base                       ;
 119                               21             0.5 base                       ;
 120                               11             0.5 base                       ;

[RESERVOIRS]
;ID                                   Head                  Pattern
 8                                  4                            ;

[TANKS]
;ID                              Elevation           Init Level            Min Level            Max Level             Diameter           Min Volume Volume Curve         Overflow            

[PIPES]
;ID                   Node1                Node2                              Length             Diameter            Roughness           Minor Loss               Status
 pipe_0_1_0           0                    1                            347.099           101.6             120               0                 Open   ;
 pipe_0_27_0          0                    27                           227.385           203.2             120               0                 Open   ;
 pipe_2_12_0          2                    12                            61.245           203.2             120               0                 Open   ;
 pipe_2_12_1          2                    12                            77.348           203.2             120               0                 Open   ;
 pipe_5_6_0           5                    6                             99.131           203.2             120               0                 Open   ;
 pipe_6_162_0         6                    162                          239.715           101.6             120               0                 Open   ;
 pipe_6_96_0          6                    96                           143.722           203.2             120               0                 Open   ;
 pipe_6_85_0          6                    85                            262.05           203.2             120               0                 Open   ;
 pipe_7_63_0          7                    63                            65.751           101.6             120               0                 Open   ;
 pipe_7_137_0         7                    137                          229.415           203.2             120               0                 Open   ;
 pipe_9_79_0          9                    79                           283.295           406.4             120               0                 Open   ;
 pipe_10_152_0        10                   152                          494.082           101.6             120               0                 Open   ;
 pipe_10_11_0         10                   11                           525.717           304.8             120               0                 Open   ;
 pipe_11_155_0        11                   155                          254.592           304.8             120               0                 Open   ;
 pipe_12_111_0        12                   111                           66.318           203.2             120               0                 Open   ;
 pipe_16_17_0         16                   17                             188.2           101.6             120               0                 Open   ;
 pipe_16_77_0         16                   77                            16.814           304.8             120               0                 Open   ;
 pipe_18_86_0         18                   86                           172.255           101.6             120               0                 Open   ;
 pipe_18_44_0         18                   44                           142.766           203.2             120               0                 Open   ;
 pipe_20_21_0         20                   21                           206.125           101.6             120               0                 Open   ;
 pipe_20_19_0         20                   19                           323.113           101.6             120               0                 Open   ;
 pipe_21_9_0          21                   9                             84.481           101.6             120               0                 Open   ;
 pipe_21_22_0         21                   22                           146.967           101.6             120               0                 Open   ;
 pipe_23_80_0         23                   80                            60.381           203.2             120               0                 Open   ;
 pipe_23_166_0        23                   166                           95.654           101.6             120               0                 Open   ;
 pipe_23_165_0        23                   165                           63.773           203.2             120               0                 Open   ;
 pipe_24_25_0         24                   25                            79.145           203.2             120               0                 Open   ;
 pipe_24_110_0        24                   110                           59.406           203.2             120               0                 Open   ;
 pipe_25_26_0         25                   26                           167.875           101.6             120               0                 Open   ;
 pipe_25_109_0        25                   109                           45.161           203.2             120               0                 Open   ;
 pipe_27_26_0         27                   26                           406.047           101.6             120               0                 Open   ;
 pipe_28_29_0         28                   29                           107.938           304.8             120               0                 Open   ;
 pipe_28_161_0        28                   161                           31.394           203.2             120               0                 Open   ;
 pipe_29_131_0        29                   131                          238.891           304.8             120               0                 Open   ;
 pipe_29_30_0         29                   30                           253.187           101.6             120               0                 Open   ;
 pipe_31_30_0         31                   30                            372.19           203.2             120               0                 Open   ;
 pipe_31_163_0        31                   163                          268.123           203.2             120               0                 Open   ;
 pipe_32_168_0        32                   168                         1219.506           101.6             120               0                 Open   ;
 pipe_37_101_0        37                   101                           95.863           101.6             120               0                 Open   ;
 pipe_37_84_0         37                   84                            95.617           203.2             120               0                 Open   ;
 pipe_38_143_0        38                   143                           91.682           203.2             120               0                 Open   ;
 pipe_38_37_0         38                   37                            455.82           203.2             120               0                 Open   ;
 pipe_39_40_0         39                   40                           134.724           101.6             120               0                 Open   ;
 pipe_39_97_0         39                   97                           136.592           203.2             120               0                 Open   ;
 pipe_40_41_0         40                   41                           113.177           101.6             120               0                 Open   ;
 pipe_41_42_0         41                   42                            85.817           101.6             120               0                 Open   ;
 pipe_43_76_0         43                   76                            90.681           203.2             120               0                 Open   ;
 pipe_44_108_0        44                   108                           131.02           203.2             120               0                 Open   ;
 pipe_44_43_0         44                   43                           195.766           203.2             120               0                 Open   ;
 pipe_45_46_0         45                   46                            64.434           203.2             120               0                 Open   ;
 pipe_45_58_0         45                   58                           113.538           203.2             120               0                 Open   ;
 pipe_57_104_0        57                   104                           47.732           203.2             120               0                 Open   ;
 pipe_57_127_0        57                   127                          109.664           203.2             120               0                 Open   ;
 pipe_58_99_0         58                   99                            63.537           101.6             120               0                 Open   ;
 pipe_58_57_0         58                   57                            52.401           203.2             120               0                 Open   ;
 pipe_59_60_0         59                   60                            93.526           101.6             120               0                 Open   ;
 pipe_59_45_0         59                   45                           103.643           203.2             120               0                 Open   ;
 pipe_59_131_0        59                   131                         1069.646           101.6             120               0                 Open   ;
 pipe_69_123_0        69                   123                           43.788           203.2             120               0                 Open   ;
 pipe_70_102_0        70                   102                            73.69           101.6             120               0                 Open   ;
 pipe_70_69_0         70                   69                           142.778           203.2             120               0                 Open   ;
 pipe_75_18_0         75                   18                           152.597           203.2             120               0                 Open   ;
 pipe_75_43_0         75                   43                           157.532           101.6             120               0                 Open   ;
 pipe_76_2_0          76                   2                            338.846           203.2             120               0                 Open   ;
 pipe_76_22_0         76                   22                           224.258           203.2             120               0                 Open   ;
 pipe_77_159_0        77                   159                          100.815           203.2             120               0                 Open   ;
 pipe_77_10_0         77                   10                            92.008           304.8             120               0                 Open   ;
 pipe_78_16_0         78                   16                            161.84           304.8             120               0                 Open   ;
 pipe_78_11_0         78                   11                           625.918           101.6             120               0                 Open   ;
 pipe_79_78_0         79                   78                            87.003           304.8             120               0                 Open   ;
 pipe_79_157_0        79                   157                           26.862           304.8             120               0                 Open   ;
 pipe_80_126_0        80                   126                          108.692           203.2             120               0                 Open   ;
 pipe_81_26_0         81                   26                            95.383           203.2             120               0                 Open   ;
 pipe_81_158_0        81                   158                           92.402           203.2             120               0                 Open   ;
 pipe_82_59_0         82                   59                           250.292           203.2             120               0                 Open   ;
 pipe_82_95_0         82                   95                           116.379           203.2             120               0                 Open   ;
 pipe_82_158_0        82                   158                          198.644           101.6             120               0                 Open   ;
 pipe_83_82_0         83                   82                             90.11           203.2             120               0                 Open   ;
 pipe_84_169_0        84                   169                          118.034           203.2             120               0                 Open   ;
 pipe_84_100_0        84                   100                          124.327           203.2             120               0                 Open   ;
 pipe_85_97_0         85                   97                           146.656           101.6             120               0                 Open   ;
 pipe_85_40_0         85                   40                           127.547           101.6             120               0                 Open   ;
 pipe_95_126_0        95                   126                           250.95           203.2             120               0                 Open   ;
 pipe_96_97_0         96                   97                           258.119           101.6             120               0                 Open   ;
 pipe_96_121_0        96                   121                           92.329           101.6             120               0                 Open   ;
 pipe_97_122_0        97                   122                           92.358           203.2             120               0                 Open   ;
 pipe_98_134_0        98                   134                          1594.52           101.6             120               0                 Open   ;
 pipe_98_39_0         98                   39                           244.492           203.2             120               0                 Open   ;
 pipe_100_124_0       100                  124                          209.732           101.6             120               0                 Open   ;
 pipe_100_167_0       100                  167                          513.522           203.2             120               0                 Open   ;
 pipe_103_133_0       103                  133                          124.403           304.8             120               0                 Open   ;
 pipe_103_70_0        103                  70                           464.768           203.2             120               0                 Open   ;
 pipe_104_105_0       104                  105                           74.237           203.2             120               0                 Open   ;
 pipe_104_0_0         104                  0                             65.262           203.2             120               0                 Open   ;
 pipe_109_81_0        109                  81                           114.792           203.2             120               0                 Open   ;
 pipe_109_95_0        109                  95                           284.657           101.6             120               0                 Open   ;
 pipe_110_4_0         110                  4                             55.875           101.6             120               0                 Open   ;
 pipe_110_126_0       110                  126                           42.431           203.2             120               0                 Open   ;
 pipe_111_80_0        111                  80                           301.383           101.6             120               0                 Open   ;