[TITLE]

[JUNCTIONS]
;ID                      Elevation       Demand Pattern                 
 0                                 22   0.93777401427 base                       ;
 1                                 18   0.62518267618 base                       ;
 2                                 18   0.75021921141 base                       ;
 3                                 18    1.5629566904 base                       ;
 4                                 19   0.62518267618 base                       ;
 5                                 24    1.8755480285 base                       ;
 6                                 22   0.25007307047 base                       ;
 7                                 24    1.2503653524 base                       ;
 8                                 24   0.31259133809 base                       ;
 9                                 24    1.5629566904 base                       ;
 10                                21    1.6879932257 base                       ;
 11                                21   0.25007307047 base                       ;
 12                                19   0.43762787332 base                       ;
 13                                18   0.56266440856 base                       ;
 14                                17   0.87525574665 base                       ;
 15                                18   0.43762787332 base                       ;
 16                                22   0.50014614094 base                       ;
 17                                21    1.0628105495 base                       ;
 18                                21    0.2040186524 base                       ;
 19                                17   0.56266440856 base                       ;
 20                                18    1.2503653524 base                       ;
 21                                18   0.62518267618 base                       ;
 22                                18   0.31259133809 base                       ;
 23                                21   0.93777401427 base                       ;
 24                                21   0.62518267618 base                       ;
 25                                18   0.37510960571 base                       ;
 26                                18   0.56266440856 base                       ;
 27                                18    0.2040186524 base                       ;
 28                                18   0.62518267618 base                       ;
 29                                17   0.62518267618 base                       ;
 30                                17    0.2040186524 base                       ;
 31                                19   0.37510960571 base                       ;
 32                                19   0.87525574665 base                       ;
 33                                20    1.4379201552 base                       ;
 34                                18    0.2040186524 base                       ;
 35                                18    1.0002922819 base                       ;
 36                                18   0.93777401427 base                       ;
 37                                23    1.1878470847 base                       ;
 38                                24   0.62518267618 base                       ;
 39                                23   0.62518267618 base                       ;
 40                                23   0.62518267618 base                       ;
 41                                23   0.62518267618 base                       ;
 42                                18    3.1259133809 base                       ;
 43                                18   0.25007307047 base                       ;
 44                                22   0.75021921141 base                       ;
 45                                22   0.93777401427 base                       ;
 46                                22    0.2040186524 base                       ;
 47                                23   0.37510960571 base                       ;
 48                                19   0.62518267618 base                       ;
 49                                22   0.62518267618 base                       ;
 50                                18    0.2040186524 base                       ;
 51                                21   0.62518267618 base                       ;
 52                                19   0.62518267618 base                       ;
 53                                23    0.2040186524 base                       ;
 54                                23   0.37510960571 base                       ;
 55                                19   0.93777401427 base                       ;
 56                                22      1.31288362 base                       ;
 57                                21      1.31288362 base                       ;
 58                                23    1.0628105495 base                       ;
 59                                26   0.43762787332 base                       ;
 60                                18   0.62518267618 base                       ;
 61                                18   0.62518267618 base                       ;
 62                                18   0.62518267618 base                       ;
 63                                18   0.62518267618 base                       ;
 64                                23   0.25007307047 base                       ;
 65                                21   0.25007307047 base                       ;
 66                                23    1.2503653524 base                       ;
 67                                24   0.31259133809 base                       ;
 68                                23    0.2040186524 base                       ;
 69                                18    1.0002922819 base                       ;
 70                                19   0.62518267618 base                       ;
 71                                18   0.93777401427 base                       ;
 72                                21    2.0005845638 base                       ;
 73                                18    2.0005845638 base                       ;
 74                                17   0.25007307047 base                       ;
 75                                22    1.5004384228 base                       ;
 79                                19   0.93777401427 base                       ;
 80                                19    1.8755480285 base                       ;
 81                                20   0.31259133809 base                       ;
 82                                20   0.93777401427 base                       ;
 83                                19    1.2503653524 base                       ;
 84                                18    1.1253288171 base                       ;
 85                                18    0.6877009438 base                       ;
 86                                17    1.2503653524 base                       ;
 87                                17   0.93777401427 base                       ;
 88                                18   0.93777401427 base                       ;
 89                                18    1.2503653524 base                       ;
 90                                17   0.75021921141 base                       ;
 91                                22    1.3754018876 base                       ;
 92                                24   0.31259133809 base                       ;
 93                                21    1.9380662962 base                       ;
 94                                21    1.2503653524 base                       ;
 95                                20    1.2503653524 base                       ;
 96                                20    1.5629566904 base                       ;
 97                                19    0.2040186524 base                       ;
 98                                21   0.93777401427 base                       ;
 99                                20   0.31259133809 base                       ;
 100                               18   0.31259133809 base                       ;
 101                               18    1.5629566904 base                       ;
 102                               23   0.43762787332 base                       ;
 103                               21   0.75021921141 base                       ;
 104                               17   0.62518267618 base                       ;
 105                               20   0.93777401427 base                       ;
 106                               23   0.31259133809 base                       ;
 107                               23   0.93777401427 base                       ;
 108                               23   0.62518267618 base                       ;
 109                               23    1.2503653524 base                       ;
 110                               22   0.62518267618 base                       ;
 111                               19   0.93777401427 base                       ;
 112                               20    1.2503653524 base                       ;
 113                               20    0.2040186524 base                       ;
 114                               15    1.6254749581 base                       ;
 115                               19    1.2503653524 base                       ;
 116                               18   0.62518267618 base                       ;
 117                               19   0.93777401427 base                       ;
 118                               19   0.62518267618 base                       ;
 119                               19    0.2040186524 base                       ;
 120                               20    1.5629566904 base                       ;
 121                               19    0.6877009438 base                       ;
 122                               22    0.2040186524 base                       ;
 123                               19   0.62518267618 base                       ;
 124                               18   0.62518267618 base                       ;
 125                               20   0.62518267618 base                       ;
 126                               23   0.62518267618 base                       ;
 127                               18   0.62518267618 base                       ;
 128                               17   0.93777401427 base                       ;
 129                               20   0.93777401427 base                       ;
 130                               20   0.75021921141 base                       ;
 131                               19    0.2040186524 base                       ;
 132                               19   0.62518267618 base                       ;
 133                               19   0.31259133809 base                       ;
 134                               20    1.2503653524 base                       ;
 135                               19   0.62518267618 base                       ;
 136                               22    0.6877009438 base                       ;
 137                               20   0.75021921141 base                       ;
 138                               21    1.1878470847 base                       ;
 139                               21    1.5004384228 base                       ;
 140                               26    1.5629566904 base                       ;
 141                               18    1.8755480285 base                       ;
 142                               17    1.3754018876 base                       ;
 143                               19   0.81273747903 base                       ;
 144                               19    1.0628105495 base                       ;
 145                               20    1.0628105495 base                       ;
 146                               20   0.93777401427 base                       ;
 147                               20    1.1878470847 base                       ;
 148                               18    1.1878470847 base                       ;
 149                               19      1.31288362 base                       ;
 150                               19    1.8130297609 base                       ;
 151                               21   0.93777401427 base                       ;
 152                               18   0.62518267618 base                       ;
 153                               17    1.5629566904 base                       ;
 154                               18   0.62518267618 base                       ;
 155                               18   0.93777401427 base                       ;
 156                               18   0.93777401427 base                       ;
 157                               19   0.93777401427 base                       ;
 158                               18    1.8755480285 base                       ;
 159                               17   0.46167336087 base                       ;
 160                               18    1.5629566904 base                       ;
 161                               18   0.75021921141 base                       ;
 162                               20   0.56266440856 base                       ;
 163                               20    1.2503653524 base                       ;
 164                               21    0.2040186524 base                       ;
 165                               19   0.62518267618 base                       ;
 166                               18   0.62518267618 base                       ;
 167                               19   0.62518267618 base                       ;
 168                               18   0.93777401427 base                       ;
 169                               18    1.2503653524 base                       ;
 170                               20    1.2503653524 base                       ;
 171                               19   0.81273747903 base                       ;
 172                               20    0.2040186524 base                       ;
 173                               17   0.43762787332 base                       ;
 174                               17   0.62518267618 base                       ;
 175                               19   0.93777401427 base                       ;
 176                               19   0.56266440856 base                       ;
 177                               22    1.4379201552 base                       ;
 178                               20   0.62518267618 base                       ;
 179                               21    1.5629566904 base                       ;
 180                               19    0.2040186524 base                       ;
 181                               20   0.93777401427 base                       ;
 182                               20   0.31259133809 base                       ;
 183                               19    0.6877009438 base                       ;
 184                               19   0.62518267618 base                       ;
 185                               19   0.93777401427 base                       ;
 186                               18    1.2503653524 base                       ;
 187                               18    1.9380662962 base                       ;
 189                               21    1.0002922819 base                       ;
 191                               23   0.75021921141 base                       ;
 192                               23   0.62518267618 base                       ;
 193                               23   0.62518267618 base                       ;
 194                               24   0.93777401427 base                       ;
 195                               21   0.62518267618 base                       ;
 196                               20   0.43762787332 base                       ;
 197                               20   0.93777401427 base                       ;
 198                               19   0.87525574665 base                       ;
 199                               22   0.75021921141 base                       ;
 200                               18   0.93777401427 base                       ;
 201                               18   0.75021921141 base                       ;
 202                               18   0.56266440856 base                       ;
 203                               19   0.62518267618 base                       ;
 204                               19    1.2503653524 base                       ;
 205                               19   0.43762787332 base                       ;
 206                               19    0.2040186524 base                       ;
 207                               19   0.43762787332 base                       ;
 208                               20   0.62518267618 base                       ;
 209                               20   0.41678845079 base                       ;
 210                               20    1.6879932257 base                       ;
 211                               19   0.62518267618 base                       ;
 212                               20    1.2503653524 base                       ;
 213                               21   0.93777401427 base                       ;
 214                               21    1.0002922819 base                       ;
 215                               24   0.62518267618 base                       ;
 216                               23   0.93777401427 base                       ;
 217                               20    0.6877009438 base                       ;
 218                               17   0.43762787332 base                       ;
 219                               17   0.93777401427 base                       ;
 220                               19   0.62518267618 base                       ;
 221                               19   0.93777401427 base                       ;
 222                               19    1.2503653524 base                       ;
 223                               21   0.93777401427 base                       ;
 224                               21    2.0871483189 base                       ;
 225                               21    1.2503653524 base                       ;
 226                               21   0.93777401427 base                       ;
 227                               20    2.1881393666 base                       ;
 228                               24    2.3756941695 base                       ;
 229                               18    1.2503653524 base                       ;
 230                               18    1.2503653524 base                       ;
 231                               18    1.6879932257 base                       ;
 232                               20   0.25007307047 base                       ;
 233                               20    0.2040186524 base                       ;
 234                               18   0.43762787332 base                       ;
 235                               18   0.43762787332 base                       ;
 236                               18   0.25007307047 base                       ;
 237                               19    0.2040186524 base                       ;
 238                               19    0.6877009438 base                       ;
 239                               19   0.43762787332 base                       ;
 240                               19   0.93777401427 base                       ;
 241                               18   0.43762787332 base                       ;
 242                               20   0.93777401427 base                       ;
 243                               17   0.25007307047 base                       ;
 244                               19   0.75021921141 base                       ;
 245                               20   0.62518267618 base                       ;
 246                               18   0.62518267618 base                       ;
 247                               18   0.31259133809 base                       ;
 248                               24   0.93777401427 base                       ;
 249                               20    0.6877009438 base                       ;
 250                               19    1.2503653524 base                       ;
 251                               20   0.31259133809 base                       ;
 252                               17   0.43762787332 base                       ;
 253                               19   0.56266440856 base                       ;
 254                               19   0.56266440856 base                       ;
 255                               19   0.56266440856 base                       ;
 256                               18   0.31259133809 base                       ;
 257                               20    0.2040186524 base                       ;
 258                               18   0.31259133809 base                       ;
 259                               18   0.31259133809 base                       ;
 260                               24   0.62518267618 base                       ;
 261                               20   0.43762787332 base                       ;
 262                               22   0.93777401427 base                       ;
 263                               23    1.1878470847 base                       ;
 264                               24   0.93777401427 base                       ;
 265                               20   0.56266440856 base                       ;
 266                               18    1.0628105495 base                       ;
 267                               17   0.31259133809 base                       ;
 268                               17   0.93777401427 base                       ;
 269                               17   0.31259133809 base                       ;
 270                               20   0.93777401427 base                       ;
 271                               18    1.2503653524 base                       ;
 272                               21   0.25007307047 base                       ;
 273                               19    1.1253288171 base                       ;
 274                               20    0.2040186524 base                       ;
 275                               20   0.93777401427 base                       ;
 276                               21   0.93777401427 base                       ;
 277                               20   0.37510960571 base                       ;
 278                               21    1.2503653524 base                       ;
 279                               24    2.8133220428 base                       ;
 280                               21    0.2040186524 base                       ;
 281                               21    1.2503653524 base                       ;
 282                               19    1.4379201552 base                       ;
 283                               21   0.62518267618 base                       ;
 284                               21    1.8755480285 base                       ;
 285                               20   0.62518267618 base                       ;
 286                               19    0.2040186524 base                       ;
 287                               20   0.56266440856 base                       ;
 288                               20   0.93777401427 base                       ;
 289                               20   0.93777401427 base                       ;
 290                               19   0.62518267618 base                       ;
 291                               19   0.31259133809 base                       ;
 292                               22   0.81273747903 base                       ;
 293                               21   0.87525574665 base                       ;
 294                               20    0.2040186524 base                       ;
 295                               19    1.2503653524 base                       ;
 296                               19   0.93777401427 base                       ;
 297                               18    1.0628105495 base                       ;
 298                               22    1.2503653524 base                       ;
 299                               22    2.3131759019 base                       ;
 300                               19   0.43762787332 base                       ;
 301                               18   0.31259133809 base                       ;
 302                               19   0.31259133809 base                       ;
 303                               17   0.31259133809 base                       ;
 304                               17   0.62518267618 base                       ;
 305                               18   0.31259133809 base                       ;
 306                               17    1.5629566904 base                       ;
 307                               21   0.31259133809 base                       ;
 308                               17   0.93777401427 base                       ;
 309                               20    0.6877009438 base                       ;
 310                               17   0.62518267618 base                       ;
 311                               20   0.62518267618 base                       ;
 312                               21    0.2040186524 base                       ;
 313                               20    0.2040186524 base                       ;
 314                               18   0.62518267618 base                       ;
 315                               18   0.75021921141 base                       ;
 316                               20   0.37510960571 base                       ;
 317                               20   0.93777401427 base                       ;
 318                               18   0.43762787332 base                       ;
 319                               17   0.93777401427 base                       ;
 320                               19     2.938358578 base                       ;
 321                               18   0.75021921141 base                       ;
 322                               20   0.93777401427 base                       ;
 323                               19    0.2040186524 base                       ;
 324                               19   0.87525574665 base                       ;
 325                               19   0.31259133809 base                       ;
 326                               21   0.31259133809 base                       ;
 327                               18   0.62518267618 base                       ;
 328                               19    1.2503653524 base                       ;
 329                               18    1.2503653524 base                       ;
 330                               19   0.43762787332 base                       ;
 331                               19    1.0002922819 base                       ;
 332                               18   0.81273747903 base                       ;
 333                               18   0.31259133809 base                       ;
 334                               18   0.43762787332 base                       ;
 335                               17   0.75021921141 base                       ;
 336                               18   0.75021921141 base                       ;
 337                               20   0.62518267618 base                       ;
 338                               20   0.93777401427 base                       ;
 339                               19   0.75021921141 base                       ;
 340                               19   0.62518267618 base                       ;
 341                               18   0.31259133809 base                       ;
 342                               18   0.75021921141 base                       ;
 343                               18    1.8755480285 base                       ;
 344                               18    0.2040186524 base                       ;
 346                               19   0.75021921141 base                       ;
 349                               20   0.75021921141 base                       ;
 350                               18   0.31259133809 base                       ;
 351                               18   0.62518267618 base                       ;
 352                               20    0.2040186524 base                       ;
 353                               20   0.43762787332 base                       ;
 354                               19   0.50014614094 base                       ;
 355                               19   0.75021921141 base                       ;
 356                               20   0.75021921141 base                       ;
 357                               18    0.2040186524 base                       ;
 358                               19    1.1878470847 base                       ;
 359                               15    1.3754018876 base                       ;
 361                               17   0.93777401427 base                       ;
 362                               21   0.93777401427 base                       ;
 363                               20   0.62518267618 base                       ;
 364                               19   0.75021921141 base                       ;
 365                               19   0.62518267618 base                       ;
 366                               19    0.2040186524 base                       ;
 367                               16   0.93777401427 base                       ;
 368                               18   0.93777401427 base                       ;